6
	Energy:       0.1541092
C         -2.94476       -0.12506        0.84869
C         -1.76298        0.48762        0.86502
H         -3.79691        0.31703        1.35468
H         -3.06341       -1.07045        0.32928
H         -1.64433        1.43301        1.38443
H         -0.91083        0.04553        0.35904
